/*--------------------------------*- C++ -*----------------------------------*\
| =========                 |                                                 |
| \\      /  F ield         | OpenFOAM: The Open Source CFD Toolbox           |
|  \\    /   O peration     | Version:  2.4.0                                 |
|   \\  /    A nd           | Web:      www.OpenFOAM.org                      |
|    \\/     M anipulation  |                                                 |
\*---------------------------------------------------------------------------*/
FoamFile
{
    version     2.0;
    format      ascii;
    class       dictionary;
    location    "system";
    object      controlDict;
}
// * * * * * * * * * * * * * * * * * * * * * * * * * * * * * * * * * * * * * //

...

purgeWrite      1;

...


functions
{
  tarSystemCall
  {
    type tarSystemCall;
    functionObjectLibs ( "libtarSystemCall.so" );
    ramDiskUsage true;
    //---------------------------
    //PLEASE SET CORRECT PATHs!!!
    //---------------------------
    pathToRamDisk "/you/path/to/ramdisk";
    pathToOriginalCaseFolder "/your/path/to/case";
    executeCalls 0();
    //-------executeCalls--------
    //1== last written data is written after time-loop back for easier restart
    //0== no backup (but still in processorxxx.tar
    //---------------------------
    endCalls 1("");                //should be always turned on
    restartData false;
    deleteStartTimeFolders true;
    onlyRestartAndDataInTar false; //constant-folder plus last time folder
    writeCalls 1("");              //1=active, 0=no data (lost in ramdisk if set to true)
    endSyncDataMaster 0();         //no folder like postProcessing or ownData is synced
    writeSyncDataMaster 0();       //no folder like postProcessing or ownData is synced
    tarAggregationCount 1;         //taring work is split among process with given frequency
    outputControl outputTime;
    writeInterval 1;
  }
}


// ************************************************************************* //
